Circuit: * D:\Documents\GitHub\TC-TPs-Individual\TP2\LTSpice\InversorCaso1DCSweep.asc

V1: Missing value, assumed 0V @ DC

Date: Thu Sep 17 18:45:16 2020
Total elapsed time: 0.048 seconds.

tnom = 27
temp = 27
method = trap
totiter = 400
traniter = 0
tranpoints = 0
accept = 0
rejected = 0
matrix size = 31
fillins = 37
solver = Normal
Matrix Compiler1: 3.10 KB object code size  0.9/0.6/[0.3]
Matrix Compiler2: 3.13 KB object code size  0.4/0.6/[0.3]

