Circuit: * D:\Documents\GitHub\TC-TPs-Individual\TP2\LTSpice\InversorCaso2DCSweep.asc

V1: Missing value, assumed 0V @ DC

Date: Thu Sep 17 18:46:26 2020
Total elapsed time: 0.126 seconds.

tnom = 27
temp = 27
method = trap
totiter = 387
traniter = 0
tranpoints = 0
accept = 0
rejected = 0
matrix size = 31
fillins = 37
solver = Normal
Matrix Compiler1:     172 opcodes  2.6/[0.6]/0.7
Matrix Compiler2: 3.13 KB object code size  1.1/1.6/[0.7]

