Circuit: * D:\Documents\GitHub\TC-TPs-Individual\TP2\LTSpice\NoInversorCaso2DCSweep.asc

V1: Missing value, assumed 0V @ DC

Date: Thu Sep 17 18:42:50 2020
Total elapsed time: 0.221 seconds.

tnom = 27
temp = 27
method = trap
totiter = 392
traniter = 0
tranpoints = 0
accept = 0
rejected = 0
matrix size = 32
fillins = 37
solver = Normal
Matrix Compiler1: 3.22 KB object code size  0.6/0.4/[0.3]
Matrix Compiler2: off  [0.3]/0.5/0.3

