Circuit: * D:\Documents\GitHub\TC-TPs-Individual\TP2\LTSpice\NoInversorCaso3.asc

Direct Newton iteration for .op point succeeded.

Date: Sat Sep 19 13:36:42 2020
Total elapsed time: 0.133 seconds.

tnom = 27
temp = 27
method = trap
totiter = 13
traniter = 0
tranpoints = 0
accept = 0
rejected = 0
matrix size = 32
fillins = 37
solver = Normal
Matrix Compiler1:     179 opcodes
Matrix Compiler2: 3.24 KB object code size
