Circuit: * D:\Documents\GitHub\TC-TPs-Individual\TP1\LTSpice\notchG.asc

.step run=1
.step run=2
.step run=3
.step run=4
.step run=5
.step run=6
.step run=7
.step run=8
.step run=9
.step run=10
.step run=11
.step run=12
.step run=13
.step run=14
.step run=15

Date: Tue Aug 25 14:24:43 2020
Total elapsed time: 0.592 seconds.

tnom = 27
temp = 27
method = trap
totiter = 0
traniter = 0
tranpoints = 0
accept = 0
rejected = 0
matrix size = 5
fillins = 2
solver = Normal

